# Name file for MODFLOW-2005, generated by Flopy version 3.3.5.
#xll:298979.300347; yll:5265743.430556; rotation:0; proj4_str:epsg:2946; units:meters; lenuni:2; start_datetime:1-1-1970
LIST               2  simu_ies_swi.list
DIS               11  simu_ies_swi.dis
BAS6              13  simu_ies_swi.bas
RCH               19  simu_ies_swi.rch
LPF               15  simu_ies_swi.lpf
GHB               23  simu_ies_swi.ghb
WEL               20  simu_ies_swi.wel
MNW2              34  simu_ies_swi.mnw2
MNWI              58  simu_ies_swi.mnwi
OC                14  simu_ies_swi.oc
PCG               27  simu_ies_swi.pcg
SWI2              29  simu_ies_swi.swi2
DATA              36  simu_ies_swi.bynd
DATA              35  simu_ies_swi.0035.mnwobs
DATA(BINARY)      51  simu_ies_swi.hds REPLACE
DATA(BINARY)      55  simu_ies_swi.zta REPLACE
