# LPF package for MODFLOW-2005 generated by Flopy 3.3.5
         0    -1E+30         0  
         1
         0
   1.000000E+00
         0
         0
INTERNAL               1 (483E15.6) -1 #hk layer 1                    
            NAN            NAN            NAN            NAN            NAN            NAN            NAN            NAN            NAN            NAN            NAN            NAN            NAN            NAN            NAN            NAN            NAN            NAN            NAN            NAN            NAN            NAN            NAN            NAN            NAN            NAN            NAN            NAN            NAN            NAN            NAN            NAN            NAN            NAN            NAN            NAN            NAN            NAN            NAN            NAN            NAN            NAN            NAN            NAN            NAN            NAN            NAN            NAN            NAN            NAN            NAN            NAN            NAN            NAN            NAN            NAN            NAN            NAN            NAN            NAN            NAN            NAN            NAN            NAN            NAN            NAN            NAN            NAN            NAN            NAN            NAN            NAN            NAN            NAN            NAN            NAN            NAN            NAN            NAN            NAN            NAN            NAN            NAN            NAN            NAN            NAN            NAN            NAN            NAN            NAN            NAN            NAN            NAN            NAN            NAN            NAN            NAN            NAN            NAN            NAN            NAN            NAN            NAN            NAN            NAN            NAN            NAN            NAN            NAN            NAN            NAN            NAN            NAN            NAN            NAN            NAN            NAN            NAN            NAN            NAN            NAN            NAN            NAN            NAN            NAN            NAN            NAN            NAN            NAN            NAN            NAN            NAN            NAN            NAN            NAN            NAN            NAN            NAN            NAN            NAN            NAN            NAN            NAN            NAN            NAN            NAN            NAN            NAN            NAN            NAN            NAN            NAN            NAN            NAN            NAN            NAN            NAN            NAN            NAN            NAN            NAN            NAN            NAN            NAN            NAN            NAN            NAN            NAN            NAN            NAN            NAN            NAN            NAN            NAN            NAN            NAN            NAN            NAN            NAN            NAN            NAN            NAN            NAN            NAN            NAN            NAN            NAN            NAN            NAN            NAN            NAN            NAN            NAN            NAN            NAN            NAN            NAN            NAN            NAN            NAN            NAN            NAN            NAN            NAN            NAN            NAN            NAN            NAN            NAN            NAN            NAN            NAN            NAN            NAN            NAN            NAN            NAN            NAN            NAN            NAN            NAN            NAN            NAN            NAN            NAN            NAN            NAN            NAN            NAN            NAN            NAN            NAN            NAN            NAN            NAN            NAN            NAN            NAN            NAN            NAN            NAN            NAN            NAN            NAN            NAN            NAN            NAN            NAN            NAN            NAN            NAN            NAN            NAN            NAN            NAN            NAN            NAN            NAN            NAN            NAN            NAN            NAN            NAN   1.000000E+00   1.000000E+00   1.000000E+00   1.000000E+00   1.000000E+00   1.000000E+00   1.000000E+00   1.000000E+00   1.000000E+00   1.000000E+00   1.000000E+00   1.000000E+00   1.000000E+00   1.000000E+00   1.000000E+00   1.000000E+00   1.000000E+00   1.000000E+00   1.000000E+00   1.000000E+00   1.000000E+00   1.000000E+00   1.000000E+00   1.000000E+00   1.000000E+00   1.000000E+00   1.000000E+00   1.000000E+00   1.000000E+00   1.000000E+00   1.000000E+00   1.000000E+00   1.000000E+00   1.000000E+00   1.000000E+00   1.000000E+00   1.000000E+00   1.000000E+00   1.000000E+00   1.000000E+00   1.000000E+00   1.000000E+00   1.000000E+00   1.000000E+00   1.000000E+00   1.000000E+00   1.000000E+00   1.000000E+00   1.000000E+00   1.000000E+00   1.000000E+00   1.000000E+00   1.000000E+00   1.000000E+00   1.000000E+00   1.000000E+00   1.000000E+00   1.000000E+00   1.000000E+00   1.000000E+00   1.000000E+00   1.000000E+00   1.000000E+00   1.000000E+00   1.000000E+00   1.000000E+00   1.000000E+00   1.000000E+00   1.000000E+00   1.000000E+00   1.000000E+00   1.000000E+00   1.000000E+00   1.000000E+00   1.000000E+00   1.000000E+00   1.000000E+00   1.000000E+00   1.000000E+00   1.000000E+00   1.000000E+00   1.000000E+00   1.000000E+00   1.000000E+00   1.000000E+00   1.000000E+00   1.000000E+00   1.000000E+00   1.000000E+00   1.000000E+00   1.000000E+00   1.000000E+00   9.667874E-01   9.669648E-01   9.670746E-01   9.671066E-01   9.669388E-01   9.667224E-01   9.667224E-01   9.667224E-01   9.667224E-01   9.667224E-01   9.667924E-01   9.669435E-01   9.669435E-01   9.669435E-01   9.669435E-01   9.669435E-01   9.669756E-01   9.670132E-01   9.669435E-01   9.669460E-01   9.669489E-01   9.669806E-01   9.670608E-01   9.670239E-01   9.669781E-01   9.670186E-01   9.669435E-01   9.670126E-01   9.671568E-01   9.670851E-01   9.670154E-01   9.671856E-01   9.672276E-01   9.671329E-01   9.670849E-01   9.671271E-01   9.671688E-01   9.673486E-01   9.673350E-01   9.673777E-01   9.671617E-01   9.671642E-01   9.672327E-01   9.673042E-01   9.672298E-01   9.674419E-01   9.675820E-01   9.676484E-01   9.678598E-01   9.680688E-01   9.680727E-01   9.675885E-01   9.671222E-01   9.670530E-01   9.670849E-01   9.671222E-01   9.670849E-01   9.672270E-01   9.673823E-01   9.673095E-01   9.671934E-01   9.671989E-01   9.670583E-01   9.670210E-01   9.669489E-01   9.669435E-01   9.669435E-01   9.669435E-01   9.669435E-01   9.669435E-01   9.669460E-01   9.670130E-01   9.671169E-01   9.670873E-01   9.671958E-01   9.672697E-01   9.673350E-01   9.674785E-01   9.674836E-01   9.674501E-01   9.674107E-01   9.675171E-01   9.675587E-01   9.674242E-01   9.672095E-01   9.670239E-01   9.669435E-01   9.669435E-01   9.669435E-01   9.668469E-01   1.000000E+00   1.000000E+00   1.000000E+00   1.000000E+00   1.000000E+00   1.000000E+00   1.000000E+00   1.000000E+00   1.000000E+00   1.000000E+00   1.000000E+00   1.000000E+00   1.000000E+00   1.000000E+00   1.000000E+00   1.000000E+00   1.000000E+00   1.000000E+00   1.000000E+00   1.000000E+00   1.000000E+00   1.000000E+00   1.000000E+00   1.000000E+00   1.000000E+00   1.000000E+00   1.000000E+00   1.000000E+00   1.000000E+00   1.000000E+00   1.000000E+00   1.000000E+00   1.000000E+00   1.000000E+00   1.000000E+00   1.000000E+00   1.000000E+00   1.000000E+00
            NAN            NAN            NAN            NAN            NAN            NAN            NAN            NAN            NAN            NAN            NAN            NAN            NAN            NAN            NAN            NAN            NAN            NAN            NAN            NAN            NAN            NAN            NAN            NAN            NAN            NAN            NAN            NAN            NAN            NAN            NAN            NAN            NAN            NAN            NAN            NAN            NAN            NAN            NAN            NAN            NAN            NAN            NAN            NAN            NAN            NAN            NAN            NAN            NAN            NAN            NAN            NAN            NAN            NAN            NAN            NAN            NAN            NAN            NAN            NAN            NAN            NAN            NAN            NAN            NAN            NAN            NAN            NAN            NAN            NAN            NAN            NAN            NAN            NAN            NAN            NAN            NAN            NAN            NAN            NAN            NAN            NAN            NAN            NAN            NAN            NAN            NAN            NAN            NAN            NAN            NAN            NAN            NAN            NAN            NAN            NAN            NAN            NAN            NAN            NAN            NAN            NAN            NAN            NAN            NAN            NAN            NAN            NAN            NAN            NAN            NAN            NAN            NAN            NAN            NAN            NAN            NAN            NAN            NAN            NAN            NAN            NAN            NAN            NAN            NAN            NAN            NAN            NAN            NAN            NAN            NAN            NAN            NAN            NAN            NAN            NAN            NAN            NAN            NAN            NAN            NAN            NAN            NAN            NAN            NAN            NAN            NAN            NAN            NAN            NAN            NAN            NAN            NAN            NAN            NAN            NAN            NAN            NAN            NAN            NAN            NAN            NAN            NAN            NAN            NAN            NAN            NAN            NAN            NAN            NAN            NAN            NAN            NAN            NAN            NAN            NAN            NAN            NAN            NAN            NAN            NAN            NAN            NAN            NAN            NAN            NAN            NAN            NAN            NAN            NAN            NAN            NAN            NAN            NAN            NAN            NAN            NAN            NAN            NAN            NAN            NAN            NAN            NAN            NAN            NAN            NAN            NAN            NAN            NAN            NAN            NAN            NAN            NAN            NAN            NAN            NAN            NAN            NAN            NAN            NAN            NAN            NAN            NAN            NAN            NAN            NAN            NAN            NAN            NAN            NAN            NAN            NAN            NAN            NAN            NAN            NAN            NAN            NAN            NAN            NAN            NAN            NAN            NAN            NAN            NAN            NAN            NAN            NAN            NAN            NAN            NAN            NAN            NAN            NAN            NAN            NAN            NAN            NAN            NAN            NAN            NAN            NAN   1.000000E+00   1.000000E+00   1.000000E+00   1.000000E+00   1.000000E+00   1.000000E+00   1.000000E+00   1.000000E+00   1.000000E+00   1.000000E+00   1.000000E+00   1.000000E+00   1.000000E+00   1.000000E+00   1.000000E+00   1.000000E+00   1.000000E+00   1.000000E+00   1.000000E+00   1.000000E+00   1.000000E+00   1.000000E+00   1.000000E+00   1.000000E+00   1.000000E+00   1.000000E+00   1.000000E+00   1.000000E+00   1.000000E+00   1.000000E+00   1.000000E+00   1.000000E+00   1.000000E+00   1.000000E+00   1.000000E+00   1.000000E+00   1.000000E+00   1.000000E+00   1.000000E+00   1.000000E+00   1.000000E+00   1.000000E+00   1.000000E+00   1.000000E+00   1.000000E+00   1.000000E+00   1.000000E+00   1.000000E+00   1.000000E+00   1.000000E+00   1.000000E+00   1.000000E+00   1.000000E+00   1.000000E+00   1.000000E+00   1.000000E+00   1.000000E+00   1.000000E+00   1.000000E+00   1.000000E+00   1.000000E+00   1.000000E+00   1.000000E+00   1.000000E+00   1.000000E+00   1.000000E+00   1.000000E+00   1.000000E+00   1.000000E+00   1.000000E+00   1.000000E+00   1.000000E+00   1.000000E+00   1.000000E+00   1.000000E+00   1.000000E+00   1.000000E+00   1.000000E+00   1.000000E+00   1.000000E+00   1.000000E+00   1.000000E+00   1.000000E+00   1.000000E+00   1.000000E+00   1.000000E+00   1.000000E+00   1.000000E+00   1.000000E+00   1.000000E+00   1.000000E+00   1.000000E+00   1.000000E+00   9.668571E-01   9.672751E-01   9.674299E-01   9.670957E-01   9.668796E-01   9.667224E-01   9.667224E-01   9.667224E-01   9.667224E-01   9.667874E-01   9.669328E-01   9.669435E-01   9.669435E-01   9.669435E-01   9.669435E-01   9.669435E-01   9.669781E-01   9.670186E-01   9.669435E-01   9.669435E-01   9.669756E-01   9.671113E-01   9.671912E-01   9.670505E-01   9.670157E-01   9.669489E-01   9.669435E-01   9.670445E-01   9.671989E-01   9.670559E-01   9.670820E-01   9.671958E-01   9.672358E-01   9.671593E-01   9.671564E-01   9.672226E-01   9.673613E-01   9.673433E-01   9.673060E-01   9.672834E-01   9.671245E-01   9.672620E-01   9.672354E-01   9.672040E-01   9.672983E-01   9.674443E-01   9.676819E-01   9.679462E-01   9.679413E-01   9.677167E-01   9.677641E-01   9.672992E-01   9.670583E-01   9.670530E-01   9.670554E-01   9.670583E-01   9.670873E-01   9.671983E-01   9.672774E-01   9.672726E-01   9.672329E-01   9.671329E-01   9.670210E-01   9.669489E-01   9.669435E-01   9.669435E-01   9.669435E-01   9.669435E-01   9.669435E-01   9.669435E-01   9.669435E-01   9.669806E-01   9.670902E-01   9.671881E-01   9.672959E-01   9.674007E-01   9.674733E-01   9.674836E-01   9.674836E-01   9.674813E-01   9.675095E-01   9.675535E-01   9.674578E-01   9.673172E-01   9.671329E-01   9.670186E-01   9.669435E-01   9.669435E-01   9.669114E-01   9.667690E-01   1.000000E+00   1.000000E+00   1.000000E+00   1.000000E+00   1.000000E+00   1.000000E+00   1.000000E+00   1.000000E+00   1.000000E+00   1.000000E+00   1.000000E+00   1.000000E+00   1.000000E+00   1.000000E+00   1.000000E+00   1.000000E+00   1.000000E+00   1.000000E+00   1.000000E+00   1.000000E+00   1.000000E+00   1.000000E+00   1.000000E+00   1.000000E+00   1.000000E+00   1.000000E+00   1.000000E+00   1.000000E+00   1.000000E+00   1.000000E+00   1.000000E+00   1.000000E+00   1.000000E+00   1.000000E+00   1.000000E+00   1.000000E+00   1.000000E+00   1.000000E+00
            NAN            NAN            NAN            NAN            NAN            NAN            NAN            NAN            NAN            NAN            NAN            NAN            NAN            NAN            NAN            NAN            NAN            NAN            NAN            NAN            NAN            NAN            NAN            NAN            NAN            NAN            NAN            NAN            NAN            NAN            NAN            NAN            NAN            NAN            NAN            NAN            NAN            NAN            NAN            NAN            NAN            NAN            NAN            NAN            NAN            NAN            NAN            NAN            NAN            NAN            NAN            NAN            NAN            NAN            NAN            NAN            NAN            NAN            NAN            NAN            NAN            NAN            NAN            NAN            NAN            NAN            NAN            NAN            NAN            NAN            NAN            NAN            NAN            NAN            NAN            NAN            NAN            NAN            NAN            NAN            NAN            NAN            NAN            NAN            NAN            NAN            NAN            NAN            NAN            NAN            NAN            NAN            NAN            NAN            NAN            NAN            NAN            NAN            NAN            NAN            NAN            NAN            NAN            NAN            NAN            NAN            NAN            NAN            NAN            NAN            NAN            NAN            NAN            NAN            NAN            NAN            NAN            NAN            NAN            NAN            NAN            NAN            NAN            NAN            NAN            NAN            NAN            NAN            NAN            NAN            NAN            NAN            NAN            NAN            NAN            NAN            NAN            NAN            NAN            NAN            NAN            NAN            NAN            NAN            NAN            NAN            NAN            NAN            NAN            NAN            NAN            NAN            NAN            NAN            NAN            NAN            NAN            NAN            NAN            NAN            NAN            NAN            NAN            NAN            NAN            NAN            NAN            NAN            NAN            NAN            NAN            NAN            NAN            NAN            NAN            NAN            NAN            NAN            NAN            NAN            NAN            NAN            NAN            NAN            NAN            NAN            NAN            NAN            NAN            NAN            NAN            NAN            NAN            NAN            NAN            NAN            NAN            NAN            NAN            NAN            NAN            NAN            NAN            NAN            NAN            NAN            NAN            NAN            NAN            NAN            NAN            NAN            NAN            NAN            NAN            NAN            NAN            NAN            NAN            NAN            NAN            NAN            NAN            NAN            NAN            NAN            NAN            NAN            NAN            NAN            NAN            NAN            NAN            NAN            NAN            NAN            NAN            NAN            NAN            NAN            NAN            NAN            NAN            NAN            NAN            NAN            NAN            NAN            NAN            NAN            NAN            NAN            NAN            NAN            NAN            NAN            NAN            NAN            NAN            NAN            NAN            NAN   1.000000E+00   1.000000E+00   1.000000E+00   1.000000E+00   1.000000E+00   1.000000E+00   1.000000E+00   1.000000E+00   1.000000E+00   1.000000E+00   1.000000E+00   1.000000E+00   1.000000E+00   1.000000E+00   1.000000E+00   1.000000E+00   1.000000E+00   1.000000E+00   1.000000E+00   1.000000E+00   1.000000E+00   1.000000E+00   1.000000E+00   1.000000E+00   1.000000E+00   1.000000E+00   1.000000E+00   1.000000E+00   1.000000E+00   1.000000E+00   1.000000E+00   1.000000E+00   1.000000E+00   1.000000E+00   1.000000E+00   1.000000E+00   1.000000E+00   1.000000E+00   1.000000E+00   1.000000E+00   1.000000E+00   1.000000E+00   1.000000E+00   1.000000E+00   1.000000E+00   1.000000E+00   1.000000E+00   1.000000E+00   1.000000E+00   1.000000E+00   1.000000E+00   1.000000E+00   1.000000E+00   1.000000E+00   1.000000E+00   1.000000E+00   1.000000E+00   1.000000E+00   1.000000E+00   1.000000E+00   1.000000E+00   1.000000E+00   1.000000E+00   1.000000E+00   1.000000E+00   1.000000E+00   1.000000E+00   1.000000E+00   1.000000E+00   1.000000E+00   1.000000E+00   1.000000E+00   1.000000E+00   1.000000E+00   1.000000E+00   1.000000E+00   1.000000E+00   1.000000E+00   1.000000E+00   1.000000E+00   1.000000E+00   1.000000E+00   1.000000E+00   1.000000E+00   1.000000E+00   1.000000E+00   1.000000E+00   1.000000E+00   1.000000E+00   1.000000E+00   1.000000E+00   1.000000E+00   1.000000E+00   9.668298E-01   9.670067E-01   9.669109E-01   9.669864E-01   9.670721E-01   9.670032E-01   9.667224E-01   9.667224E-01   9.667224E-01   9.667924E-01   9.669435E-01   9.669756E-01   9.670132E-01   9.669756E-01   9.670132E-01   9.669435E-01   9.669781E-01   9.670505E-01   9.670132E-01   9.669435E-01   9.669460E-01   9.669884E-01   9.670637E-01   9.670530E-01   9.670505E-01   9.670771E-01   9.671779E-01   9.672539E-01   9.671701E-01   9.669514E-01   9.670499E-01   9.672645E-01   9.672673E-01   9.672305E-01   9.671934E-01   9.672669E-01   9.672774E-01   9.673064E-01   9.673718E-01   9.673071E-01   9.671589E-01   9.671378E-01   9.670980E-01   9.671958E-01   9.673663E-01   9.676409E-01   9.678827E-01   9.680390E-01   9.677237E-01   9.672686E-01   9.671721E-01   9.670690E-01   9.670530E-01   9.670530E-01   9.670530E-01   9.670530E-01   9.671191E-01   9.672959E-01   9.673694E-01   9.673381E-01   9.672042E-01   9.670583E-01   9.670186E-01   9.669435E-01   9.669435E-01   9.669435E-01   9.669435E-01   9.669435E-01   9.669435E-01   9.669435E-01   9.669435E-01   9.669781E-01   9.670873E-01   9.672274E-01   9.673405E-01   9.673427E-01   9.674836E-01   9.674836E-01   9.674836E-01   9.674836E-01   9.674861E-01   9.674578E-01   9.673196E-01   9.671088E-01   9.669567E-01   9.669489E-01   9.669435E-01   9.669435E-01   9.668444E-01   9.666217E-01   1.000000E+00   1.000000E+00   1.000000E+00   1.000000E+00   1.000000E+00   1.000000E+00   1.000000E+00   1.000000E+00   1.000000E+00   1.000000E+00   1.000000E+00   1.000000E+00   1.000000E+00   1.000000E+00   1.000000E+00   1.000000E+00   1.000000E+00   1.000000E+00   1.000000E+00   1.000000E+00   1.000000E+00   1.000000E+00   1.000000E+00   1.000000E+00   1.000000E+00   1.000000E+00   1.000000E+00   1.000000E+00   1.000000E+00   1.000000E+00   1.000000E+00   1.000000E+00   1.000000E+00   1.000000E+00   1.000000E+00   1.000000E+00   1.000000E+00   1.000000E+00
            NAN            NAN            NAN            NAN            NAN            NAN            NAN            NAN            NAN            NAN            NAN            NAN            NAN            NAN            NAN            NAN            NAN            NAN            NAN            NAN            NAN            NAN            NAN            NAN            NAN            NAN            NAN            NAN            NAN            NAN            NAN            NAN            NAN            NAN            NAN            NAN            NAN            NAN            NAN            NAN            NAN            NAN            NAN            NAN            NAN            NAN            NAN            NAN            NAN            NAN            NAN            NAN            NAN            NAN            NAN            NAN            NAN            NAN            NAN            NAN            NAN            NAN            NAN            NAN            NAN            NAN            NAN            NAN            NAN            NAN            NAN            NAN            NAN            NAN            NAN            NAN            NAN            NAN            NAN            NAN            NAN            NAN            NAN            NAN            NAN            NAN            NAN            NAN            NAN            NAN            NAN            NAN            NAN            NAN            NAN            NAN            NAN            NAN            NAN            NAN            NAN            NAN            NAN            NAN            NAN            NAN            NAN            NAN            NAN            NAN            NAN            NAN            NAN            NAN            NAN            NAN            NAN            NAN            NAN            NAN            NAN            NAN            NAN            NAN            NAN            NAN            NAN            NAN            NAN            NAN            NAN            NAN            NAN            NAN            NAN            NAN            NAN            NAN            NAN            NAN            NAN            NAN            NAN            NAN            NAN            NAN            NAN            NAN            NAN            NAN            NAN            NAN            NAN            NAN            NAN            NAN            NAN            NAN            NAN            NAN            NAN            NAN            NAN            NAN            NAN            NAN            NAN            NAN            NAN            NAN            NAN            NAN            NAN            NAN            NAN            NAN            NAN            NAN            NAN            NAN            NAN            NAN            NAN            NAN            NAN            NAN            NAN            NAN            NAN            NAN            NAN            NAN            NAN            NAN            NAN            NAN            NAN            NAN            NAN            NAN            NAN            NAN            NAN            NAN            NAN            NAN            NAN            NAN            NAN            NAN            NAN            NAN            NAN            NAN            NAN            NAN            NAN            NAN            NAN            NAN            NAN            NAN            NAN            NAN            NAN            NAN            NAN            NAN            NAN            NAN            NAN            NAN            NAN            NAN            NAN            NAN            NAN            NAN            NAN            NAN            NAN            NAN            NAN            NAN            NAN            NAN            NAN            NAN            NAN            NAN            NAN            NAN            NAN            NAN            NAN            NAN            NAN            NAN            NAN            NAN            NAN   1.000000E+00   1.000000E+00   1.000000E+00   1.000000E+00   1.000000E+00   1.000000E+00   1.000000E+00   1.000000E+00   1.000000E+00   1.000000E+00   1.000000E+00   1.000000E+00   1.000000E+00   1.000000E+00   1.000000E+00   1.000000E+00   1.000000E+00   1.000000E+00   1.000000E+00   1.000000E+00   1.000000E+00   1.000000E+00   1.000000E+00   1.000000E+00   1.000000E+00   1.000000E+00   1.000000E+00   1.000000E+00   1.000000E+00   1.000000E+00   1.000000E+00   1.000000E+00   1.000000E+00   1.000000E+00   1.000000E+00   1.000000E+00   1.000000E+00   1.000000E+00   1.000000E+00   1.000000E+00   1.000000E+00   1.000000E+00   1.000000E+00   1.000000E+00   1.000000E+00   1.000000E+00   1.000000E+00   1.000000E+00   1.000000E+00   1.000000E+00   1.000000E+00   1.000000E+00   1.000000E+00   1.000000E+00   1.000000E+00   1.000000E+00   1.000000E+00   1.000000E+00   1.000000E+00   1.000000E+00   1.000000E+00   1.000000E+00   1.000000E+00   1.000000E+00   1.000000E+00   1.000000E+00   1.000000E+00   1.000000E+00   1.000000E+00   1.000000E+00   1.000000E+00   1.000000E+00   1.000000E+00   1.000000E+00   1.000000E+00   1.000000E+00   1.000000E+00   1.000000E+00   1.000000E+00   1.000000E+00   1.000000E+00   1.000000E+00   1.000000E+00   1.000000E+00   1.000000E+00   1.000000E+00   1.000000E+00   1.000000E+00   1.000000E+00   1.000000E+00   1.000000E+00   1.000000E+00   1.000000E+00   1.000000E+00   9.667948E-01   9.669785E-01   9.670717E-01   9.671487E-01   9.670929E-01   9.669493E-01   9.668634E-01   9.667549E-01   9.668577E-01   9.669328E-01   9.669435E-01   9.669460E-01   9.669489E-01   9.669460E-01   9.669810E-01   9.670132E-01   9.669781E-01   9.670210E-01   9.669489E-01   9.669756E-01   9.670132E-01   9.669460E-01   9.669514E-01   9.669514E-01   9.669514E-01   9.669539E-01   9.669937E-01   9.670686E-01   9.670293E-01   9.669435E-01   9.670150E-01   9.672327E-01   9.673381E-01   9.672673E-01   9.672645E-01   9.672697E-01   9.672697E-01   9.672722E-01   9.672143E-01   9.671033E-01   9.671934E-01   9.672596E-01   9.672568E-01   9.672959E-01   9.674702E-01   9.677533E-01   9.679633E-01   9.679843E-01   9.675415E-01   9.671353E-01   9.670583E-01   9.670530E-01   9.670849E-01   9.671222E-01   9.670530E-01   9.670530E-01   9.670579E-01   9.671980E-01   9.674137E-01   9.672435E-01   9.671329E-01   9.670210E-01   9.669489E-01   9.669435E-01   9.669435E-01   9.669435E-01   9.669435E-01   9.669435E-01   9.669435E-01   9.669435E-01   9.669756E-01   9.670795E-01   9.672197E-01   9.673979E-01   9.674113E-01   9.673374E-01   9.674525E-01   9.674159E-01   9.675147E-01   9.675511E-01   9.674836E-01   9.674501E-01   9.672781E-01   9.670239E-01   9.669435E-01   9.669435E-01   9.669435E-01   9.668469E-01   9.666272E-01   1.000000E+00   1.000000E+00   1.000000E+00   1.000000E+00   1.000000E+00   1.000000E+00   1.000000E+00   1.000000E+00   1.000000E+00   1.000000E+00   1.000000E+00   1.000000E+00   1.000000E+00   1.000000E+00   1.000000E+00   1.000000E+00   1.000000E+00   1.000000E+00   1.000000E+00   1.000000E+00   1.000000E+00   1.000000E+00   1.000000E+00   1.000000E+00   1.000000E+00   1.000000E+00   1.000000E+00   1.000000E+00   1.000000E+00   1.000000E+00   1.000000E+00   1.000000E+00   1.000000E+00   1.000000E+00   1.000000E+00   1.000000E+00   1.000000E+00   1.000000E+00   1.000000E+00