# MNW2 package for MODFLOW-2005 generated by Flopy 3.3.5
9 0 0
muni1 -1
            thiem 0 0 0 0
               7.5000003E-02 
               6.3130002E+00   -2.0027000E+01 242 164
muni2 -1
            thiem 0 0 0 0
               7.5000003E-02 
               1.0656000E+01   -2.1054001E+01 258 145
muni3 -1
            thiem 0 0 0 0
               7.5000003E-02 
               3.4660001E+00   -2.2993999E+01 248 158
muni4 -1
            thiem 0 0 0 0
               7.5000003E-02 
              -6.5330000E+00   -1.1533000E+01 253 158
muni5 -1
            thiem 0 0 0 0
               7.5000003E-02 
              -8.5730000E+00   -2.0813000E+01 195 208
muni6 -1
            thiem 0 0 0 0
               7.5000003E-02 
               1.5057000E+01   -1.8573000E+01 200 197
muni7 -1
            thiem 0 0 0 0
               7.5000003E-02 
              -6.9730000E+00   -3.2193001E+01 216 151
muni8 -1
            thiem 0 0 0 0
               7.5000003E-02 
              -3.8829999E+00   -2.8603001E+01 224 137
muni9 -1
            thiem 0 0 0 0
               7.5000003E-02 
               8.5699999E-01   -2.4393000E+01 239 113
9  Stress Period 1
muni1   -2.9400000E-04
muni2   -7.9999998E-05
muni3   -6.5000000E-05
muni4   -1.3099999E-04
muni5   -2.4300000E-04
muni6   -4.4000000E-05
muni7   -1.0000000E-06
muni8   -2.5400001E-04
muni9   -7.2000003E-05
